Version 4.1
SHEET 1 880 680
WIRE 272 128 272 48
WIRE 336 128 336 48
WIRE 352 128 336 128
WIRE 272 208 272 128
WIRE 272 208 -80 208
WIRE 352 208 352 128
WIRE 496 208 352 208
WIRE -80 256 -80 208
WIRE 496 320 496 208
WIRE -80 432 -80 336
WIRE 144 512 -80 512
WIRE 496 512 496 400
WIRE 496 512 144 512
FLAG 144 512 0
SYMBOL voltage -80 416 R0
WINDOW 123 24 124 Left 2
WINDOW 39 0 0 Left 0
SYMATTR Value2 AC 5
SYMATTR InstName V1
SYMATTR Value SINE(0 5)
SYMBOL cap 336 32 R90
WINDOW 0 0 32 VBottom 2
WINDOW 3 32 32 VTop 2
SYMATTR InstName C1
SYMATTR Value 0
SYMBOL cap 336 112 R90
WINDOW 0 0 32 VBottom 2
WINDOW 3 32 32 VTop 2
SYMATTR InstName C2
SYMATTR Value 1”
SYMBOL ind 368 192 R90
WINDOW 0 5 56 VBottom 2
WINDOW 3 32 56 VTop 2
SYMATTR InstName L1
SYMATTR Value 470”
SYMATTR SpiceLine Rser=2.5
SYMBOL res 480 304 R0
SYMATTR InstName R1
SYMATTR Value 2000
SYMBOL res -96 240 R0
SYMATTR InstName Rv
SYMATTR Value 50
TEXT 96 360 Left 2 !.ac dec 100 100 30000
