Version 4.1
SHEET 1 880 680
WIRE 64 80 -32 80
WIRE 176 80 144 80
WIRE 208 80 208 16
WIRE 208 80 176 80
WIRE -32 128 -32 80
WIRE 208 128 208 80
WIRE 288 128 288 16
WIRE 288 128 272 128
WIRE -32 256 -32 208
WIRE 288 256 288 128
WIRE 288 256 -32 256
FLAG 288 256 0
FLAG 176 80 Vout
SYMBOL voltage -32 112 R0
WINDOW 123 24 124 Left 2
WINDOW 39 0 0 Left 0
SYMATTR Value2 AC 1
SYMATTR InstName V1
SYMATTR Value SINE(0 1)
SYMBOL res 160 64 R90
WINDOW 0 0 56 VBottom 2
WINDOW 3 32 56 VTop 2
SYMATTR InstName R1
SYMATTR Value 10000
SYMBOL ind 304 0 R90
WINDOW 0 5 56 VBottom 2
WINDOW 3 32 56 VTop 2
SYMATTR InstName L1
SYMATTR Value 0.1
SYMATTR SpiceLine Rser=1m
SYMBOL cap 272 112 R90
WINDOW 0 0 32 VBottom 2
WINDOW 3 32 32 VTop 2
SYMATTR InstName C1
SYMATTR Value 0.0000013
TEXT -128 320 Left 2 !.ac dec 100 10 10kHz
